6

  C        0.0000000        0.0000000        0.6655810
  H        0.0000000        0.9321350        1.2456070
  H        0.0000000       -0.9321350        1.2456070
  C        0.0000000        0.0000000       -0.6655810
  H        0.0000000       -0.9321350       -1.2456070
  H        0.0000000        0.9321350       -1.2456070
